input_files/LF_Case06_R4_S/AU14GenModel.EPC
title
LF_CASE06_R3_S  14-GEN SIMPLIFIED MODEL OF 4-STATE SYSTEM.
LIGHT LOAD#2 AREA4->AREA2->AREA3->AREA5 0-0-0 MW
!
comments
!
solution parameters
tap    1    tcul  enabled/disabled
phas   1    ps    enabled/disabled
area   1    area  enabled/disabled
svd    1    svd   enabled/disabled
dctap  1    dc    enabled/disabled
gcd    0    gcd   enabled/disabled
jump  0.000200    jumper threshold
toler   0.1000    newton tolerance
sbase 100.0000    system mva base
!
bus data  [59]               ty  vsched   volt     angle    ar zone  vmax   vmin   date_in date_out pid L own st  latitude  longitude island    sdmon   vmax1      vmin1      dvmax
    101 "1_HPSGEN    "  15.0000 :  2 1.00000 1.000000 -19.51314   1    1 1.1000 0.9000   400101   391231   0 0   1 0    0.00000    0.00000 0    0.00000    0.00000    0.00000
    102 "1_HPS330    " 330.0000 :  1 1.036789 1.036789 -19.51315   1    1 1.1000 0.9000   400101   391231   0 0   1 0    0.00000    0.00000 0    0.00000    0.00000    0.00000
    201 "2_BPSGEN    "  20.0000 :  2 1.00000 1.000000   4.42892   2    1 1.1000 0.9000   400101   391231   0 0   1 0    0.00000    0.00000 0    0.00000    0.00000    0.00000
    202 "2_EPSGEN    "  20.0000 :  2 1.00000 1.000000   1.98127   2    1 1.1000 0.9000   400101   391231   0 0   1 0    0.00000    0.00000 0    0.00000    0.00000    0.00000
    203 "2_VPSGEN    "  20.0000 :  2 1.00000 1.000000   1.43892   2    1 1.1000 0.9000   400101   391231   0 0   1 0    0.00000    0.00000 0    0.00000    0.00000    0.00000
    204 "2_MPSGEN    "  20.0000 :  0 1.00000 1.000000   0.00000   2    1 1.1000 0.9000   400101   391231   0 0   1 0    0.00000    0.00000 0    0.00000    0.00000    0.00000
    205 "2_ASV330    " 330.0000 :  2 1.04500 1.045000  -8.29030   2    1 1.1000 0.9000   400101   391231   0 0   1 0    0.00000    0.00000 0    0.00000    0.00000    0.00000
    206 "2_BPS330    " 330.0000 :  1 1.012111 1.012111  -3.27957   2    1 1.1000 0.9000   400101   391231   0 0   1 0    0.00000    0.00000 0    0.00000    0.00000    0.00000
    207 "2_N__330    " 330.0000 :  1 0.996817 0.996817  -7.91575   2    1 1.1000 0.9000   400101   391231   0 0   1 0    0.00000    0.00000 0    0.00000    0.00000    0.00000
    208 "2_VPS330    " 330.0000 :  1 1.000376 1.000376  -7.26900   2    1 1.1000 0.9000   400101   391231   0 0   1 0    0.00000    0.00000 0    0.00000    0.00000    0.00000
    209 "2_EPS330    " 330.0000 :  1 1.002300 1.002300  -6.19496   2    1 1.1000 0.9000   400101   391231   0 0   1 0    0.00000    0.00000 0    0.00000    0.00000    0.00000
    210 "2_EPS500    " 500.0000 :  1 1.039589 1.039589  -8.50569   2    1 1.1000 0.9000   400101   391231   0 0   1 0    0.00000    0.00000 0    0.00000    0.00000    0.00000
    211 "2_SN_330    " 330.0000 :  1 1.009346 1.009346 -12.92986   2    1 1.1000 0.9000   400101   391231   0 0   1 0    0.00000    0.00000 0    0.00000    0.00000    0.00000
    212 "2_SW_330    " 330.0000 :  1 1.019003 1.019003 -13.34850   2    1 1.1000 0.9000   400101   391231   0 0   1 0    0.00000    0.00000 0    0.00000    0.00000    0.00000
    213 "2_K__500    " 500.0000 :  1 1.039802 1.039802 -10.94874   2    1 1.1000 0.9000   400101   391231   0 0   1 0    0.00000    0.00000 0    0.00000    0.00000    0.00000
    214 "2_K__330    " 330.0000 :  1 1.033673 1.033673 -13.23814   2    1 1.1000 0.9000   400101   391231   0 0   1 0    0.00000    0.00000 0    0.00000    0.00000    0.00000
    215 "2_MPS330    " 330.0000 :  1 1.011721 1.011721  -6.68546   2    1 1.1000 0.9000   400101   391231   0 0   1 0    0.00000    0.00000 0    0.00000    0.00000    0.00000
    216 "2_SS_330    " 330.0000 :  1 1.031860 1.031860 -15.16902   2    1 1.1000 0.9000   400101   391231   0 0   1 0    0.00000    0.00000 0    0.00000    0.00000    0.00000
    217 "2_YC_330    " 330.0000 :  1 1.033003 1.033003 -17.11988   2    1 1.1000 0.9000   400101   391231   0 0   1 0    0.00000    0.00000 0    0.00000    0.00000    0.00000
    301 "3_LPSGEN    "  20.0000 :  2 1.00000 1.000000   0.48464   3    1 1.1000 0.9000   400101   391231   0 0   1 0    0.00000    0.00000 0    0.00000    0.00000    0.00000
    302 "3_YPSGEN    "  20.0000 :  2 1.00000 1.000000  -7.70258   3    1 1.1000 0.9000   400101   391231   0 0   1 0    0.00000    0.00000 0    0.00000    0.00000    0.00000
    303 "3_LPS500    " 500.0000 :  1 1.006438 1.006438  -7.05173   3    1 1.1000 0.9000   400101   391231   0 0   1 0    0.00000    0.00000 0    0.00000    0.00000    0.00000
    304 "3_R__500    " 500.0000 :  1 1.008008 1.008008 -15.82893   3    1 1.1000 0.9000   400101   391231   0 0   1 0    0.00000    0.00000 0    0.00000    0.00000    0.00000
    305 "3_SM_500    " 500.0000 :  1 1.019684 1.019684 -16.94186   3    1 1.1000 0.9000   400101   391231   0 0   1 0    0.00000    0.00000 0    0.00000    0.00000    0.00000
    306 "3_K__500    " 500.0000 :  1 1.022132 1.022132 -18.37979   3    1 1.1000 0.9000   400101   391231   0 0   1 0    0.00000    0.00000 0    0.00000    0.00000    0.00000
    307 "3_M__500    " 500.0000 :  1 1.024734 1.024734 -18.36659   3    1 1.1000 0.9000   400101   391231   0 0   1 0    0.00000    0.00000 0    0.00000    0.00000    0.00000
    308 "3_H__500    " 500.0000 :  1 1.050107 1.050107 -23.88902   3    1 1.1000 0.9000   400101   391231   0 0   1 0    0.00000    0.00000 0    0.00000    0.00000    0.00000
    309 "3_D__330    " 330.0000 :  1 1.043742 1.043742 -19.56358   3    1 1.1000 0.9000   400101   391231   0 0   1 0    0.00000    0.00000 0    0.00000    0.00000    0.00000
    310 "3_SS_330    " 330.0000 :  1 1.010149 1.010149 -16.56104   3    1 1.1000 0.9000   400101   391231   0 0   1 0    0.00000    0.00000 0    0.00000    0.00000    0.00000
    311 "3_SM_330    " 330.0000 :  1 1.043464 1.043464 -17.85407   3    1 1.1000 0.9000   400101   391231   0 0   1 0    0.00000    0.00000 0    0.00000    0.00000    0.00000
    312 "3_YPS220    " 220.0000 :  1 1.011111 1.011111 -15.25159   3    1 1.1000 0.9000   400101   391231   0 0   1 0    0.00000    0.00000 0    0.00000    0.00000    0.00000
    313 "3_RSV220    " 220.0000 :  2 1.01500 1.015000 -21.16578   3    1 1.1000 0.9000   400101   391231   0 0   1 0    0.00000    0.00000 0    0.00000    0.00000    0.00000
    314 "3_SM_220    " 220.0000 :  1 1.017142 1.017142 -20.27474   3    1 1.1000 0.9000   400101   391231   0 0   1 0    0.00000    0.00000 0    0.00000    0.00000    0.00000
    315 "3_H__275    " 275.0000 :  1 1.044801 1.044801 -23.89176   3    1 1.1000 0.9000   400101   391231   0 0   1 0    0.00000    0.00000 0    0.00000    0.00000    0.00000
    401 "4_TPSGEN    "  20.0000 :  2 1.00000 1.000000  -0.80365   4    1 1.1000 0.9000   400101   391231   0 0   1 0    0.00000    0.00000 0    0.00000    0.00000    0.00000
    402 "4_CPSGEN    "  20.0000 :  2 1.00000 1.000000  16.41139   4    1 1.1000 0.9000   400101   391231   0 0   1 0    0.00000    0.00000 0    0.00000    0.00000    0.00000
    403 "4_SPSGEN    "  20.0000 :  2 1.00000 1.000000  14.90442   4    1 1.1000 0.9000   400101   391231   0 0   1 0    0.00000    0.00000 0    0.00000    0.00000    0.00000
    404 "4_GPSGEN    "  20.0000 :  2 1.00000 1.000000   9.42254   4    1 1.1000 0.9000   400101   391231   0 0   1 0    0.00000    0.00000 0    0.00000    0.00000    0.00000
    405 "4_GPS275    " 275.0000 :  1 1.005812 1.005812   2.28636   4    1 1.1000 0.9000   400101   391231   0 0   1 0    0.00000    0.00000 0    0.00000    0.00000    0.00000
    406 "4_N__275    " 275.0000 :  1 0.998222 0.998222   5.78442   4    1 1.1000 0.9000   400101   391231   0 0   1 0    0.00000    0.00000 0    0.00000    0.00000    0.00000
    407 "4_SPS275    " 275.0000 :  1 0.999774 0.999774   7.52329   4    1 1.1000 0.9000   400101   391231   0 0   1 0    0.00000    0.00000 0    0.00000    0.00000    0.00000
    408 "4_CPS275    " 275.0000 :  1 1.007078 1.007078   8.55260   4    1 1.1000 0.9000   400101   391231   0 0   1 0    0.00000    0.00000 0    0.00000    0.00000    0.00000
    409 "4_W__275    " 275.0000 :  1 1.029274 1.029274  -8.75294   4    1 1.1000 0.9000   400101   391231   0 0   1 0    0.00000    0.00000 0    0.00000    0.00000    0.00000
    410 "4_TPS275    " 275.0000 :  1 1.008244 1.008244  -7.61225   4    1 1.1000 0.9000   400101   391231   0 0   1 0    0.00000    0.00000 0    0.00000    0.00000    0.00000
    411 "4_SP_275    " 275.0000 :  1 1.004956 1.004956 -13.97198   4    1 1.1000 0.9000   400101   391231   0 0   1 0    0.00000    0.00000 0    0.00000    0.00000    0.00000
    412 "4_BW_275    " 275.0000 :  2 1.00000 1.000000 -14.19882   4    1 1.1000 0.9000   400101   391231   0 0   1 0    0.00000    0.00000 0    0.00000    0.00000    0.00000
    413 "4_BR_275    " 275.0000 :  1 1.046897 1.046897  -7.90443   4    1 1.1000 0.9000   400101   391231   0 0   1 0    0.00000    0.00000 0    0.00000    0.00000    0.00000
    414 "4_BR_330    " 330.0000 :  1 1.019418 1.019418  -7.91620   4    1 1.1000 0.9000   400101   391231   0 0   1 0    0.00000    0.00000 0    0.00000    0.00000    0.00000
    415 "4_BU_330    " 330.0000 :  1 1.033038 1.033038  -8.03457   4    1 1.1000 0.9000   400101   391231   0 0   1 0    0.00000    0.00000 0    0.00000    0.00000    0.00000
    416 "4_DU_330    " 330.0000 :  1 1.045751 1.045751  -8.19304   4    1 1.1000 0.9000   400101   391231   0 0   1 0    0.00000    0.00000 0    0.00000    0.00000    0.00000
    501 "5_NPSGEN    "  20.0000 :  2 1.00000 1.000000  -8.49746   5    1 1.1000 0.9000   400101   391231   0 0   1 0    0.00000    0.00000 0    0.00000    0.00000    0.00000
    502 "5_TPSGEN    "  15.0000 :  2 1.00000 1.000000  -5.72421   5    1 1.1000 0.9000   400101   391231   0 0   1 0    0.00000    0.00000 0    0.00000    0.00000    0.00000
    503 "5_PPSGEN    "  15.0000 :  2 1.00000 1.000000  -8.36467   5    1 1.1000 0.9000   400101   391231   0 0   1 0    0.00000    0.00000 0    0.00000    0.00000    0.00000
    504 "5_D__275    " 275.0000 :  1 1.016532 1.016532 -16.40180   5    1 1.1000 0.9000   400101   391231   0 0   1 0    0.00000    0.00000 0    0.00000    0.00000    0.00000
    505 "5_TPS275    " 275.0000 :  1 0.994949 0.994949 -13.26744   5    1 1.1000 0.9000   400101   391231   0 0   1 0    0.00000    0.00000 0    0.00000    0.00000    0.00000
    506 "5_PPS275    " 275.0000 :  1 0.998938 0.998938 -15.40559   5    1 1.1000 0.9000   400101   391231   0 0   1 0    0.00000    0.00000 0    0.00000    0.00000    0.00000
    507 "5_PSV275    " 275.0000 :  2 1.00000 1.000000 -16.18067   5    1 1.1000 0.9000   400101   391231   0 0   1 0    0.00000    0.00000 0    0.00000    0.00000    0.00000
    508 "5_CG_275    " 275.0000 :  1 1.001332 1.001332 -16.77299   5    1 1.1000 0.9000   400101   391231   0 0   1 0    0.00000    0.00000 0    0.00000    0.00000    0.00000
    509 "5_SSV275    " 275.0000 :  2 1.03000 1.030000 -23.78175   5    1 1.1000 0.9000   400101   391231   0 0   1 0    0.00000    0.00000 0    0.00000    0.00000    0.00000
branch data  [  104]                                          ck  se  ------------long_id_------------    st resist   react   charge   rate1  rate2  rate3  rate4 aloss  lngth 
    102 "1_HPS330    " 330.00     217 "2_YC_330    " 330.00  "1 "  1 "                                " :  1  0.008400  0.066700  0.817000    0.0    0.0    0.0    0.0 0.000    0.0 /
   2    1  0.000000  0.000000  1.000000   400101   391231   0 1  0    0.0    0.0    0.0    0.0   1 1.000   0 0.000   0 0.000   0 0.000   0 0.000   0 0.000   0 0.000   0 0.000  0 0 
    102 "1_HPS330    " 330.00     217 "2_YC_330    " 330.00  "2 "  1 "                                " :  1  0.008400  0.066700  0.817000    0.0    0.0    0.0    0.0 0.000    0.0 /
   2    1  0.000000  0.000000  1.000000   400101   391231   0 1  0    0.0    0.0    0.0    0.0   1 1.000   0 0.000   0 0.000   0 0.000   0 0.000   0 0.000   0 0.000   0 0.000  0 0 
    102 "1_HPS330    " 330.00     217 "2_YC_330    " 330.00  "3 "  1 "                                " :  1  0.007800  0.062000  0.760000    0.0    0.0    0.0    0.0 0.000    0.0 /
   2    1  0.000000  0.000000  1.000000   400101   391231   0 1  0    0.0    0.0    0.0    0.0   1 1.000   0 0.000   0 0.000   0 0.000   0 0.000   0 0.000   0 0.000   0 0.000  0 0 
    102 "1_HPS330    " 330.00     217 "2_YC_330    " 330.00  "4 "  1 "                                " :  1  0.007800  0.062000  0.760000    0.0    0.0    0.0    0.0 0.000    0.0 /
   2    1  0.000000  0.000000  1.000000   400101   391231   0 1  0    0.0    0.0    0.0    0.0   1 1.000   0 0.000   0 0.000   0 0.000   0 0.000   0 0.000   0 0.000   0 0.000  0 0 
    102 "1_HPS330    " 330.00     309 "3_D__330    " 330.00  "1 "  1 "                                " :  1  0.004500  0.035600  0.437000    0.0    0.0    0.0    0.0 0.000    0.0 /
   3    1  0.000000  0.000000  1.000000   400101   391231   0 1  0    0.0    0.0    0.0    0.0   1 1.000   0 0.000   0 0.000   0 0.000   0 0.000   0 0.000   0 0.000   0 0.000  0 0 
    102 "1_HPS330    " 330.00     309 "3_D__330    " 330.00  "2 "  1 "                                " :  1  0.004500  0.035600  0.437000    0.0    0.0    0.0    0.0 0.000    0.0 /
   3    1  0.000000  0.000000  1.000000   400101   391231   0 1  0    0.0    0.0    0.0    0.0   1 1.000   0 0.000   0 0.000   0 0.000   0 0.000   0 0.000   0 0.000   0 0.000  0 0 
    102 "1_HPS330    " 330.00     309 "3_D__330    " 330.00  "3 "  1 "                                " :  1  0.010900  0.086800  0.760000    0.0    0.0    0.0    0.0 0.000    0.0 /
   3    1  0.000000  0.000000  1.000000   400101   391231   0 1  0    0.0    0.0    0.0    0.0   1 1.000   0 0.000   0 0.000   0 0.000   0 0.000   0 0.000   0 0.000   0 0.000  0 0 
    205 "2_ASV330    " 330.00     206 "2_BPS330    " 330.00  "1 "  1 "                                " :  1  0.009600  0.076000  0.931000    0.0    0.0    0.0    0.0 0.000    0.0 /
   2    1  0.000000  0.000000  1.000000   400101   391231   0 1  0    0.0    0.0    0.0    0.0   1 1.000   0 0.000   0 0.000   0 0.000   0 0.000   0 0.000   0 0.000   0 0.000  0 0 
    205 "2_ASV330    " 330.00     206 "2_BPS330    " 330.00  "2 "  1 "                                " :  1  0.009600  0.076000  0.931000    0.0    0.0    0.0    0.0 0.000    0.0 /
   2    1  0.000000  0.000000  1.000000   400101   391231   0 1  0    0.0    0.0    0.0    0.0   1 1.000   0 0.000   0 0.000   0 0.000   0 0.000   0 0.000   0 0.000   0 0.000  0 0 
    205 "2_ASV330    " 330.00     416 "4_DU_330    " 330.00  "1 "  1 "                                " :  1  0.003700  0.046000  0.730000    0.0    0.0    0.0    0.0 0.000    0.0 /
   4    1  0.000000  0.000000  1.000000   400101   391231   0 1  0    0.0    0.0    0.0    0.0   1 1.000   0 0.000   0 0.000   0 0.000   0 0.000   0 0.000   0 0.000   0 0.000  0 0 
    205 "2_ASV330    " 330.00     416 "4_DU_330    " 330.00  "2 "  1 "                                " :  1  0.003700  0.046000  0.730000    0.0    0.0    0.0    0.0 0.000    0.0 /
   4    1  0.000000  0.000000  1.000000   400101   391231   0 1  0    0.0    0.0    0.0    0.0   1 1.000   0 0.000   0 0.000   0 0.000   0 0.000   0 0.000   0 0.000   0 0.000  0 0 
    206 "2_BPS330    " 330.00     207 "2_N__330    " 330.00  "1 "  1 "                                " :  1  0.004500  0.035600  0.437000    0.0    0.0    0.0    0.0 0.000    0.0 /
   2    1  0.000000  0.000000  1.000000   400101   391231   0 1  0    0.0    0.0    0.0    0.0   1 1.000   0 0.000   0 0.000   0 0.000   0 0.000   0 0.000   0 0.000   0 0.000  0 0 
    206 "2_BPS330    " 330.00     207 "2_N__330    " 330.00  "2 "  1 "                                " :  1  0.004500  0.035600  0.437000    0.0    0.0    0.0    0.0 0.000    0.0 /
   2    1  0.000000  0.000000  1.000000   400101   391231   0 1  0    0.0    0.0    0.0    0.0   1 1.000   0 0.000   0 0.000   0 0.000   0 0.000   0 0.000   0 0.000   0 0.000  0 0 
    206 "2_BPS330    " 330.00     212 "2_SW_330    " 330.00  "1 "  1 "                                " :  1  0.006600  0.052700  0.646000    0.0    0.0    0.0    0.0 0.000    0.0 /
   2    1  0.000000  0.000000  1.000000   400101   391231   0 1  0    0.0    0.0    0.0    0.0   1 1.000   0 0.000   0 0.000   0 0.000   0 0.000   0 0.000   0 0.000   0 0.000  0 0 
    206 "2_BPS330    " 330.00     212 "2_SW_330    " 330.00  "2 "  1 "                                " :  1  0.006600  0.052700  0.646000    0.0    0.0    0.0    0.0 0.000    0.0 /
   2    1  0.000000  0.000000  1.000000   400101   391231   0 1  0    0.0    0.0    0.0    0.0   1 1.000   0 0.000   0 0.000   0 0.000   0 0.000   0 0.000   0 0.000   0 0.000  0 0 
    206 "2_BPS330    " 330.00     215 "2_MPS330    " 330.00  "1 "  1 "                                " :  1  0.006600  0.052700  0.646000    0.0    0.0    0.0    0.0 0.000    0.0 /
   2    1  0.000000  0.000000  1.000000   400101   391231   0 1  0    0.0    0.0    0.0    0.0   1 1.000   0 0.000   0 0.000   0 0.000   0 0.000   0 0.000   0 0.000   0 0.000  0 0 
    206 "2_BPS330    " 330.00     215 "2_MPS330    " 330.00  "2 "  1 "                                " :  1  0.006600  0.052700  0.646000    0.0    0.0    0.0    0.0 0.000    0.0 /
   2    1  0.000000  0.000000  1.000000   400101   391231   0 1  0    0.0    0.0    0.0    0.0   1 1.000   0 0.000   0 0.000   0 0.000   0 0.000   0 0.000   0 0.000   0 0.000  0 0 
    207 "2_N__330    " 330.00     208 "2_VPS330    " 330.00  "1 "  1 "                                " :  1  0.001800  0.014000  0.171000    0.0    0.0    0.0    0.0 0.000    0.0 /
   2    1  0.000000  0.000000  1.000000   400101   391231   0 1  0    0.0    0.0    0.0    0.0   1 1.000   0 0.000   0 0.000   0 0.000   0 0.000   0 0.000   0 0.000   0 0.000  0 0 
    207 "2_N__330    " 330.00     208 "2_VPS330    " 330.00  "2 "  1 "                                " :  1  0.001800  0.014000  0.171000    0.0    0.0    0.0    0.0 0.000    0.0 /
   2    1  0.000000  0.000000  1.000000   400101   391231   0 1  0    0.0    0.0    0.0    0.0   1 1.000   0 0.000   0 0.000   0 0.000   0 0.000   0 0.000   0 0.000   0 0.000  0 0 
    207 "2_N__330    " 330.00     209 "2_EPS330    " 330.00  "1 "  1 "                                " :  1  0.000800  0.006200  0.076000    0.0    0.0    0.0    0.0 0.000    0.0 /
   2    1  0.000000  0.000000  1.000000   400101   391231   0 1  0    0.0    0.0    0.0    0.0   1 1.000   0 0.000   0 0.000   0 0.000   0 0.000   0 0.000   0 0.000   0 0.000  0 0 
    208 "2_VPS330    " 330.00     211 "2_SN_330    " 330.00  "1 "  1 "                                " :  1  0.003100  0.024800  0.304000    0.0    0.0    0.0    0.0 0.000    0.0 /
   2    1  0.000000  0.000000  1.000000   400101   391231   0 1  0    0.0    0.0    0.0    0.0   1 1.000   0 0.000   0 0.000   0 0.000   0 0.000   0 0.000   0 0.000   0 0.000  0 0 
    208 "2_VPS330    " 330.00     211 "2_SN_330    " 330.00  "2 "  1 "                                " :  1  0.003100  0.024800  0.304000    0.0    0.0    0.0    0.0 0.000    0.0 /
   2    1  0.000000  0.000000  1.000000   400101   391231   0 1  0    0.0    0.0    0.0    0.0   1 1.000   0 0.000   0 0.000   0 0.000   0 0.000   0 0.000   0 0.000   0 0.000  0 0 
    208 "2_VPS330    " 330.00     211 "2_SN_330    " 330.00  "3 "  1 "                                " :  1  0.003100  0.024800  0.304000    0.0    0.0    0.0    0.0 0.000    0.0 /
   2    1  0.000000  0.000000  1.000000   400101   391231   0 1  0    0.0    0.0    0.0    0.0   1 1.000   0 0.000   0 0.000   0 0.000   0 0.000   0 0.000   0 0.000   0 0.000  0 0 
    209 "2_EPS330    " 330.00     212 "2_SW_330    " 330.00  "1 "  1 "                                " :  1  0.004500  0.035600  0.437000    0.0    0.0    0.0    0.0 0.000    0.0 /
   2    1  0.000000  0.000000  1.000000   400101   391231   0 1  0    0.0    0.0    0.0    0.0   1 1.000   0 0.000   0 0.000   0 0.000   0 0.000   0 0.000   0 0.000   0 0.000  0 0 
    210 "2_EPS500    " 500.00     213 "2_K__500    " 500.00  "1 "  1 "                                " :  1  0.001000  0.014500  1.540000    0.0    0.0    0.0    0.0 0.000    0.0 /
   2    1  0.000000  0.000000  1.000000   400101   391231   0 1  0    0.0    0.0    0.0    0.0   1 1.000   0 0.000   0 0.000   0 0.000   0 0.000   0 0.000   0 0.000   0 0.000  0 0 
    210 "2_EPS500    " 500.00     213 "2_K__500    " 500.00  "2 "  1 "                                " :  1  0.001000  0.014500  1.540000    0.0    0.0    0.0    0.0 0.000    0.0 /
   2    1  0.000000  0.000000  1.000000   400101   391231   0 1  0    0.0    0.0    0.0    0.0   1 1.000   0 0.000   0 0.000   0 0.000   0 0.000   0 0.000   0 0.000   0 0.000  0 0 
    211 "2_SN_330    " 330.00     212 "2_SW_330    " 330.00  "1 "  1 "                                " :  1  0.001400  0.010800  0.133000    0.0    0.0    0.0    0.0 0.000    0.0 /
   2    1  0.000000  0.000000  1.000000   400101   391231   0 1  0    0.0    0.0    0.0    0.0   1 1.000   0 0.000   0 0.000   0 0.000   0 0.000   0 0.000   0 0.000   0 0.000  0 0 
    211 "2_SN_330    " 330.00     212 "2_SW_330    " 330.00  "2 "  1 "                                " :  1  0.001400  0.010800  0.133000    0.0    0.0    0.0    0.0 0.000    0.0 /
   2    1  0.000000  0.000000  1.000000   400101   391231   0 1  0    0.0    0.0    0.0    0.0   1 1.000   0 0.000   0 0.000   0 0.000   0 0.000   0 0.000   0 0.000   0 0.000  0 0 
    211 "2_SN_330    " 330.00     214 "2_K__330    " 330.00  "1 "  1 "                                " :  1  0.001900  0.015500  0.190000    0.0    0.0    0.0    0.0 0.000    0.0 /
   2    1  0.000000  0.000000  1.000000   400101   391231   0 1  0    0.0    0.0    0.0    0.0   1 1.000   0 0.000   0 0.000   0 0.000   0 0.000   0 0.000   0 0.000   0 0.000  0 0 
    212 "2_SW_330    " 330.00     217 "2_YC_330    " 330.00  "1 "  1 "                                " :  1  0.007000  0.055800  0.684000    0.0    0.0    0.0    0.0 0.000    0.0 /
   2    1  0.000000  0.000000  1.000000   400101   391231   0 1  0    0.0    0.0    0.0    0.0   1 1.000   0 0.000   0 0.000   0 0.000   0 0.000   0 0.000   0 0.000   0 0.000  0 0 
    214 "2_K__330    " 330.00     216 "2_SS_330    " 330.00  "1 "  1 "                                " :  1  0.001000  0.007700  0.095000    0.0    0.0    0.0    0.0 0.000    0.0 /
   2    1  0.000000  0.000000  1.000000   400101   391231   0 1  0    0.0    0.0    0.0    0.0   1 1.000   0 0.000   0 0.000   0 0.000   0 0.000   0 0.000   0 0.000   0 0.000  0 0 
    214 "2_K__330    " 330.00     217 "2_YC_330    " 330.00  "1 "  1 "                                " :  1  0.004900  0.038800  0.475000    0.0    0.0    0.0    0.0 0.000    0.0 /
   2    1  0.000000  0.000000  1.000000   400101   391231   0 1  0    0.0    0.0    0.0    0.0   1 1.000   0 0.000   0 0.000   0 0.000   0 0.000   0 0.000   0 0.000   0 0.000  0 0 
    215 "2_MPS330    " 330.00     216 "2_SS_330    " 330.00  "1 "  1 "                                " :  1  0.005100  0.040300  0.494000    0.0    0.0    0.0    0.0 0.000    0.0 /
   2    1  0.000000  0.000000  1.000000   400101   391231   0 1  0    0.0    0.0    0.0    0.0   1 1.000   0 0.000   0 0.000   0 0.000   0 0.000   0 0.000   0 0.000   0 0.000  0 0 
    215 "2_MPS330    " 330.00     216 "2_SS_330    " 330.00  "2 "  1 "                                " :  1  0.005100  0.040300  0.494000    0.0    0.0    0.0    0.0 0.000    0.0 /
   2    1  0.000000  0.000000  1.000000   400101   391231   0 1  0    0.0    0.0    0.0    0.0   1 1.000   0 0.000   0 0.000   0 0.000   0 0.000   0 0.000   0 0.000   0 0.000  0 0 
    215 "2_MPS330    " 330.00     217 "2_YC_330    " 330.00  "1 "  1 "                                " :  1  0.007200  0.057400  0.703000    0.0    0.0    0.0    0.0 0.000    0.0 /
   2    1  0.000000  0.000000  1.000000   400101   391231   0 1  0    0.0    0.0    0.0    0.0   1 1.000   0 0.000   0 0.000   0 0.000   0 0.000   0 0.000   0 0.000   0 0.000  0 0 
    215 "2_MPS330    " 330.00     217 "2_YC_330    " 330.00  "2 "  1 "                                " :  1  0.007200  0.057400  0.703000    0.0    0.0    0.0    0.0 0.000    0.0 /
   2    1  0.000000  0.000000  1.000000   400101   391231   0 1  0    0.0    0.0    0.0    0.0   1 1.000   0 0.000   0 0.000   0 0.000   0 0.000   0 0.000   0 0.000   0 0.000  0 0 
    216 "2_SS_330    " 330.00     217 "2_YC_330    " 330.00  "1 "  1 "                                " :  1  0.005100  0.040300  0.494000    0.0    0.0    0.0    0.0 0.000    0.0 /
   2    1  0.000000  0.000000  1.000000   400101   391231   0 1  0    0.0    0.0    0.0    0.0   1 1.000   0 0.000   0 0.000   0 0.000   0 0.000   0 0.000   0 0.000   0 0.000  0 0 
    303 "3_LPS500    " 500.00     304 "3_R__500    " 500.00  "1 "  1 "                                " :  1  0.002000  0.028000  0.740000    0.0    0.0    0.0    0.0 0.000    0.0 /
   3    1  0.000000  0.000000  1.000000   400101   391231   0 1  0    0.0    0.0    0.0    0.0   1 1.000   0 0.000   0 0.000   0 0.000   0 0.000   0 0.000   0 0.000   0 0.000  0 0 
    303 "3_LPS500    " 500.00     304 "3_R__500    " 500.00  "2 "  1 "                                " :  1  0.002000  0.028000  0.740000    0.0    0.0    0.0    0.0 0.000    0.0 /
   3    1  0.000000  0.000000  1.000000   400101   391231   0 1  0    0.0    0.0    0.0    0.0   1 1.000   0 0.000   0 0.000   0 0.000   0 0.000   0 0.000   0 0.000   0 0.000  0 0 
    303 "3_LPS500    " 500.00     305 "3_SM_500    " 500.00  "1 "  1 "                                " :  1  0.001100  0.016000  1.700000    0.0    0.0    0.0    0.0 0.000    0.0 /
   3    1  0.000000  0.000000  1.000000   400101   391231   0 1  0    0.0    0.0    0.0    0.0   1 1.000   0 0.000   0 0.000   0 0.000   0 0.000   0 0.000   0 0.000   0 0.000  0 0 
    303 "3_LPS500    " 500.00     305 "3_SM_500    " 500.00  "2 "  1 "                                " :  1  0.001100  0.016000  1.700000    0.0    0.0    0.0    0.0 0.000    0.0 /
   3    1  0.000000  0.000000  1.000000   400101   391231   0 1  0    0.0    0.0    0.0    0.0   1 1.000   0 0.000   0 0.000   0 0.000   0 0.000   0 0.000   0 0.000   0 0.000  0 0 
    304 "3_R__500    " 500.00     305 "3_SM_500    " 500.00  "1 "  1 "                                " :  1  0.000300  0.004000  0.424000    0.0    0.0    0.0    0.0 0.000    0.0 /
   3    1  0.000000  0.000000  1.000000   400101   391231   0 1  0    0.0    0.0    0.0    0.0   1 1.000   0 0.000   0 0.000   0 0.000   0 0.000   0 0.000   0 0.000   0 0.000  0 0 
    305 "3_SM_500    " 500.00     306 "3_K__500    " 500.00  "1 "  1 "                                " :  1  0.000200  0.003000  0.320000    0.0    0.0    0.0    0.0 0.000    0.0 /
   3    1  0.000000  0.000000  1.000000   400101   391231   0 1  0    0.0    0.0    0.0    0.0   1 1.000   0 0.000   0 0.000   0 0.000   0 0.000   0 0.000   0 0.000   0 0.000  0 0 
    305 "3_SM_500    " 500.00     307 "3_M__500    " 500.00  "1 "  1 "                                " :  1  0.000300  0.004500  0.447000    0.0    0.0    0.0    0.0 0.000    0.0 /
   3    1  0.000000  0.000000  1.000000   400101   391231   0 1  0    0.0    0.0    0.0    0.0   1 1.000   0 0.000   0 0.000   0 0.000   0 0.000   0 0.000   0 0.000   0 0.000  0 0 
    305 "3_SM_500    " 500.00     307 "3_M__500    " 500.00  "2 "  1 "                                " :  1  0.000300  0.004500  0.447000    0.0    0.0    0.0    0.0 0.000    0.0 /
   3    1  0.000000  0.000000  1.000000   400101   391231   0 1  0    0.0    0.0    0.0    0.0   1 1.000   0 0.000   0 0.000   0 0.000   0 0.000   0 0.000   0 0.000   0 0.000  0 0 
    306 "3_K__500    " 500.00     307 "3_M__500    " 500.00  "1 "  1 "                                " :  1  0.000100  0.001200  0.127000    0.0    0.0    0.0    0.0 0.000    0.0 /
   3    1  0.000000  0.000000  1.000000   400101   391231   0 1  0    0.0    0.0    0.0    0.0   1 1.000   0 0.000   0 0.000   0 0.000   0 0.000   0 0.000   0 0.000   0 0.000  0 0 
    307 "3_M__500    " 500.00     308 "3_H__500    " 500.00  "1 "  1 "                                " :  1  0.002300  0.032500  3.445000    0.0    0.0    0.0    0.0 0.000    0.0 /
   3    1  0.000000  0.000000  1.000000   400101   391231   0 1  0    0.0    0.0    0.0    0.0   1 1.000   0 0.000   0 0.000   0 0.000   0 0.000   0 0.000   0 0.000   0 0.000  0 0 
    307 "3_M__500    " 500.00     308 "3_H__500    " 500.00  "2 "  1 "                                " :  1  0.002300  0.032500  3.445000    0.0    0.0    0.0    0.0 0.000    0.0 /
   3    1  0.000000  0.000000  1.000000   400101   391231   0 1  0    0.0    0.0    0.0    0.0   1 1.000   0 0.000   0 0.000   0 0.000   0 0.000   0 0.000   0 0.000   0 0.000  0 0 
    309 "3_D__330    " 330.00     310 "3_SS_330    " 330.00  "1 "  1 "                                " :  1  0.013500  0.106950  0.582670    0.0    0.0    0.0    0.0 0.000    0.0 /
   3    1  0.000000  0.000000  1.000000   400101   391231   0 1  0    0.0    0.0    0.0    0.0   1 1.000   0 0.000   0 0.000   0 0.000   0 0.000   0 0.000   0 0.000   0 0.000  0 0 
    309 "3_D__330    " 330.00     310 "3_SS_330    " 330.00  "2 "  1 "                                " :  1  0.013500  0.106950  0.582670    0.0    0.0    0.0    0.0 0.000    0.0 /
   3    1  0.000000  0.000000  1.000000   400101   391231   0 1  0    0.0    0.0    0.0    0.0   1 1.000   0 0.000   0 0.000   0 0.000   0 0.000   0 0.000   0 0.000   0 0.000  0 0 
    309 "3_D__330    " 330.00     310 "3_SS_330    " 330.00  "3 "  1 "                                " :  1  0.013500  0.106950  0.582670    0.0    0.0    0.0    0.0 0.000    0.0 /
   3    1  0.000000  0.000000  1.000000   400101   391231   0 1  0    0.0    0.0    0.0    0.0   1 1.000   0 0.000   0 0.000   0 0.000   0 0.000   0 0.000   0 0.000   0 0.000  0 0 
    310 "3_SS_330    " 330.00     311 "3_SM_330    " 330.00  "1 "  1 "                                " :  1  0.000000 -0.033700  0.000000    0.0    0.0    0.0    0.0 0.000    0.0 /
   3    1  0.000000  0.000000  1.000000   400101   391231   0 1  0    0.0    0.0    0.0    0.0   1 1.000   0 0.000   0 0.000   0 0.000   0 0.000   0 0.000   0 0.000   0 0.000  0 0 
    310 "3_SS_330    " 330.00     311 "3_SM_330    " 330.00  "2 "  1 "                                " :  1  0.000000 -0.033700  0.000000    0.0    0.0    0.0    0.0 0.000    0.0 /
   3    1  0.000000  0.000000  1.000000   400101   391231   0 1  0    0.0    0.0    0.0    0.0   1 1.000   0 0.000   0 0.000   0 0.000   0 0.000   0 0.000   0 0.000   0 0.000  0 0 
    312 "3_YPS220    " 220.00     313 "3_RSV220    " 220.00  "1 "  1 "                                " :  1  0.006000  0.045000  0.300000    0.0    0.0    0.0    0.0 0.000    0.0 /
   3    1  0.000000  0.000000  1.000000   400101   391231   0 1  0    0.0    0.0    0.0    0.0   1 1.000   0 0.000   0 0.000   0 0.000   0 0.000   0 0.000   0 0.000   0 0.000  0 0 
    312 "3_YPS220    " 220.00     313 "3_RSV220    " 220.00  "2 "  1 "                                " :  1  0.006000  0.045000  0.300000    0.0    0.0    0.0    0.0 0.000    0.0 /
   3    1  0.000000  0.000000  1.000000   400101   391231   0 1  0    0.0    0.0    0.0    0.0   1 1.000   0 0.000   0 0.000   0 0.000   0 0.000   0 0.000   0 0.000   0 0.000  0 0 
    312 "3_YPS220    " 220.00     313 "3_RSV220    " 220.00  "3 "  1 "                                " :  1  0.006000  0.045000  0.300000    0.0    0.0    0.0    0.0 0.000    0.0 /
   3    1  0.000000  0.000000  1.000000   400101   391231   0 1  0    0.0    0.0    0.0    0.0   1 1.000   0 0.000   0 0.000   0 0.000   0 0.000   0 0.000   0 0.000   0 0.000  0 0 
    313 "3_RSV220    " 220.00     314 "3_SM_220    " 220.00  "1 "  1 "                                " :  1  0.001000  0.010000  0.260000    0.0    0.0    0.0    0.0 0.000    0.0 /
   3    1  0.000000  0.000000  1.000000   400101   391231   0 1  0    0.0    0.0    0.0    0.0   1 1.000   0 0.000   0 0.000   0 0.000   0 0.000   0 0.000   0 0.000   0 0.000  0 0 
    313 "3_RSV220    " 220.00     314 "3_SM_220    " 220.00  "2 "  1 "                                " :  1  0.001000  0.010000  0.260000    0.0    0.0    0.0    0.0 0.000    0.0 /
   3    1  0.000000  0.000000  1.000000   400101   391231   0 1  0    0.0    0.0    0.0    0.0   1 1.000   0 0.000   0 0.000   0 0.000   0 0.000   0 0.000   0 0.000   0 0.000  0 0 
    315 "3_H__275    " 275.00     509 "5_SSV275    " 275.00  "1 "  1 "                                " :  1  0.007000  0.050000  0.190000    0.0    0.0    0.0    0.0 0.000    0.0 /
   5    1  0.000000  0.000000  1.000000   400101   391231   0 1  0    0.0    0.0    0.0    0.0   1 1.000   0 0.000   0 0.000   0 0.000   0 0.000   0 0.000   0 0.000   0 0.000  0 0 
    315 "3_H__275    " 275.00     509 "5_SSV275    " 275.00  "2 "  1 "                                " :  1  0.007000  0.050000  0.190000    0.0    0.0    0.0    0.0 0.000    0.0 /
   5    1  0.000000  0.000000  1.000000   400101   391231   0 1  0    0.0    0.0    0.0    0.0   1 1.000   0 0.000   0 0.000   0 0.000   0 0.000   0 0.000   0 0.000   0 0.000  0 0 
    405 "4_GPS275    " 275.00     406 "4_N__275    " 275.00  "1 "  1 "                                " :  1  0.003900  0.047500  0.381000    0.0    0.0    0.0    0.0 0.000    0.0 /
   4    1  0.000000  0.000000  1.000000   400101   391231   0 1  0    0.0    0.0    0.0    0.0   1 1.000   0 0.000   0 0.000   0 0.000   0 0.000   0 0.000   0 0.000   0 0.000  0 0 
    405 "4_GPS275    " 275.00     406 "4_N__275    " 275.00  "2 "  1 "                                " :  1  0.003900  0.047500  0.381000    0.0    0.0    0.0    0.0 0.000    0.0 /
   4    1  0.000000  0.000000  1.000000   400101   391231   0 1  0    0.0    0.0    0.0    0.0   1 1.000   0 0.000   0 0.000   0 0.000   0 0.000   0 0.000   0 0.000   0 0.000  0 0 
    405 "4_GPS275    " 275.00     408 "4_CPS275    " 275.00  "1 "  1 "                                " :  1  0.005400  0.050000  0.189000    0.0    0.0    0.0    0.0 0.000    0.0 /
   4    1  0.000000  0.000000  1.000000   400101   391231   0 1  0    0.0    0.0    0.0    0.0   1 1.000   0 0.000   0 0.000   0 0.000   0 0.000   0 0.000   0 0.000   0 0.000  0 0 
    405 "4_GPS275    " 275.00     409 "4_W__275    " 275.00  "1 "  1 "                                " :  1  0.018000  0.122000  0.790000    0.0    0.0    0.0    0.0 0.000    0.0 /
   4    1  0.000000  0.000000  1.000000   400101   391231   0 1  0    0.0    0.0    0.0    0.0   1 1.000   0 0.000   0 0.000   0 0.000   0 0.000   0 0.000   0 0.000   0 0.000  0 0 
    405 "4_GPS275    " 275.00     409 "4_W__275    " 275.00  "2 "  1 "                                " :  1  0.018000  0.122000  0.790000    0.0    0.0    0.0    0.0 0.000    0.0 /
   4    1  0.000000  0.000000  1.000000   400101   391231   0 1  0    0.0    0.0    0.0    0.0   1 1.000   0 0.000   0 0.000   0 0.000   0 0.000   0 0.000   0 0.000   0 0.000  0 0 
    405 "4_GPS275    " 275.00     409 "4_W__275    " 275.00  "3 "  1 "                                " :  1  0.018000  0.122000  0.790000    0.0    0.0    0.0    0.0 0.000    0.0 /
   4    1  0.000000  0.000000  1.000000   400101   391231   0 1  0    0.0    0.0    0.0    0.0   1 1.000   0 0.000   0 0.000   0 0.000   0 0.000   0 0.000   0 0.000   0 0.000  0 0 
    406 "4_N__275    " 275.00     407 "4_SPS275    " 275.00  "1 "  1 "                                " :  1  0.000600  0.007600  0.062000    0.0    0.0    0.0    0.0 0.000    0.0 /
   4    1  0.000000  0.000000  1.000000   400101   391231   0 1  0    0.0    0.0    0.0    0.0   1 1.000   0 0.000   0 0.000   0 0.000   0 0.000   0 0.000   0 0.000   0 0.000  0 0 
    406 "4_N__275    " 275.00     407 "4_SPS275    " 275.00  "2 "  1 "                                " :  1  0.000600  0.007600  0.062000    0.0    0.0    0.0    0.0 0.000    0.0 /
   4    1  0.000000  0.000000  1.000000   400101   391231   0 1  0    0.0    0.0    0.0    0.0   1 1.000   0 0.000   0 0.000   0 0.000   0 0.000   0 0.000   0 0.000   0 0.000  0 0 
    407 "4_SPS275    " 275.00     408 "4_CPS275    " 275.00  "1 "  1 "                                " :  1  0.004200  0.051300  0.412000    0.0    0.0    0.0    0.0 0.000    0.0 /
   4    1  0.000000  0.000000  1.000000   400101   391231   0 1  0    0.0    0.0    0.0    0.0   1 1.000   0 0.000   0 0.000   0 0.000   0 0.000   0 0.000   0 0.000   0 0.000  0 0 
    408 "4_CPS275    " 275.00     410 "4_TPS275    " 275.00  "1 "  1 "                                " :  1  0.016500  0.192000  0.673330    0.0    0.0    0.0    0.0 0.000    0.0 /
   4    1  0.000000  0.000000  1.000000   400101   391231   0 1  0    0.0    0.0    0.0    0.0   1 1.000   0 0.000   0 0.000   0 0.000   0 0.000   0 0.000   0 0.000   0 0.000  0 0 
    408 "4_CPS275    " 275.00     410 "4_TPS275    " 275.00  "2 "  1 "                                " :  1  0.016500  0.192000  0.673330    0.0    0.0    0.0    0.0 0.000    0.0 /
   4    1  0.000000  0.000000  1.000000   400101   391231   0 1  0    0.0    0.0    0.0    0.0   1 1.000   0 0.000   0 0.000   0 0.000   0 0.000   0 0.000   0 0.000   0 0.000  0 0 
    408 "4_CPS275    " 275.00     410 "4_TPS275    " 275.00  "3 "  1 "                                " :  1  0.016500  0.192000  0.673330    0.0    0.0    0.0    0.0 0.000    0.0 /
   4    1  0.000000  0.000000  1.000000   400101   391231   0 1  0    0.0    0.0    0.0    0.0   1 1.000   0 0.000   0 0.000   0 0.000   0 0.000   0 0.000   0 0.000   0 0.000  0 0 
    409 "4_W__275    " 275.00     411 "4_SP_275    " 275.00  "1 "  1 "                                " :  1  0.010300  0.070900  0.460000    0.0    0.0    0.0    0.0 0.000    0.0 /
   4    1  0.000000  0.000000  1.000000   400101   391231   0 1  0    0.0    0.0    0.0    0.0   1 1.000   0 0.000   0 0.000   0 0.000   0 0.000   0 0.000   0 0.000   0 0.000  0 0 
    409 "4_W__275    " 275.00     411 "4_SP_275    " 275.00  "2 "  1 "                                " :  1  0.010300  0.070900  0.460000    0.0    0.0    0.0    0.0 0.000    0.0 /
   4    1  0.000000  0.000000  1.000000   400101   391231   0 1  0    0.0    0.0    0.0    0.0   1 1.000   0 0.000   0 0.000   0 0.000   0 0.000   0 0.000   0 0.000   0 0.000  0 0 
    410 "4_TPS275    " 275.00     411 "4_SP_275    " 275.00  "1 "  1 "                                " :  1  0.004300  0.053200  0.427000    0.0    0.0    0.0    0.0 0.000    0.0 /
   4    1  0.000000  0.000000  1.000000   400101   391231   0 1  0    0.0    0.0    0.0    0.0   1 1.000   0 0.000   0 0.000   0 0.000   0 0.000   0 0.000   0 0.000   0 0.000  0 0 
    410 "4_TPS275    " 275.00     412 "4_BW_275    " 275.00  "1 "  1 "                                " :  1  0.004300  0.053200  0.427000    0.0    0.0    0.0    0.0 0.000    0.0 /
   4    1  0.000000  0.000000  1.000000   400101   391231   0 1  0    0.0    0.0    0.0    0.0   1 1.000   0 0.000   0 0.000   0 0.000   0 0.000   0 0.000   0 0.000   0 0.000  0 0 
    410 "4_TPS275    " 275.00     412 "4_BW_275    " 275.00  "2 "  1 "                                " :  1  0.004300  0.053200  0.427000    0.0    0.0    0.0    0.0 0.000    0.0 /
   4    1  0.000000  0.000000  1.000000   400101   391231   0 1  0    0.0    0.0    0.0    0.0   1 1.000   0 0.000   0 0.000   0 0.000   0 0.000   0 0.000   0 0.000   0 0.000  0 0 
    410 "4_TPS275    " 275.00     412 "4_BW_275    " 275.00  "3 "  1 "                                " :  1  0.004300  0.053200  0.427000    0.0    0.0    0.0    0.0 0.000    0.0 /
   4    1  0.000000  0.000000  1.000000   400101   391231   0 1  0    0.0    0.0    0.0    0.0   1 1.000   0 0.000   0 0.000   0 0.000   0 0.000   0 0.000   0 0.000   0 0.000  0 0 
    410 "4_TPS275    " 275.00     412 "4_BW_275    " 275.00  "4 "  1 "                                " :  1  0.004300  0.053200  0.427000    0.0    0.0    0.0    0.0 0.000    0.0 /
   4    1  0.000000  0.000000  1.000000   400101   391231   0 1  0    0.0    0.0    0.0    0.0   1 1.000   0 0.000   0 0.000   0 0.000   0 0.000   0 0.000   0 0.000   0 0.000  0 0 
    410 "4_TPS275    " 275.00     413 "4_BR_275    " 275.00  "1 "  1 "                                " :  1  0.004000  0.049400  0.400000    0.0    0.0    0.0    0.0 0.000    0.0 /
   4    1  0.000000  0.000000  1.000000   400101   391231   0 1  0    0.0    0.0    0.0    0.0   1 1.000   0 0.000   0 0.000   0 0.000   0 0.000   0 0.000   0 0.000   0 0.000  0 0 
    410 "4_TPS275    " 275.00     413 "4_BR_275    " 275.00  "2 "  1 "                                " :  1  0.004000  0.049400  0.400000    0.0    0.0    0.0    0.0 0.000    0.0 /
   4    1  0.000000  0.000000  1.000000   400101   391231   0 1  0    0.0    0.0    0.0    0.0   1 1.000   0 0.000   0 0.000   0 0.000   0 0.000   0 0.000   0 0.000   0 0.000  0 0 
    411 "4_SP_275    " 275.00     412 "4_BW_275    " 275.00  "1 "  1 "                                " :  1  0.001200  0.015200  0.122000    0.0    0.0    0.0    0.0 0.000    0.0 /
   4    1  0.000000  0.000000  1.000000   400101   391231   0 1  0    0.0    0.0    0.0    0.0   1 1.000   0 0.000   0 0.000   0 0.000   0 0.000   0 0.000   0 0.000   0 0.000  0 0 
    411 "4_SP_275    " 275.00     412 "4_BW_275    " 275.00  "2 "  1 "                                " :  1  0.001200  0.015200  0.122000    0.0    0.0    0.0    0.0 0.000    0.0 /
   4    1  0.000000  0.000000  1.000000   400101   391231   0 1  0    0.0    0.0    0.0    0.0   1 1.000   0 0.000   0 0.000   0 0.000   0 0.000   0 0.000   0 0.000   0 0.000  0 0 
    414 "4_BR_330    " 330.00     415 "4_BU_330    " 330.00  "1 "  1 "                                " :  1  0.002000  0.025000  0.390000    0.0    0.0    0.0    0.0 0.000    0.0 /
   4    1  0.000000  0.000000  1.000000   400101   391231   0 1  0    0.0    0.0    0.0    0.0   1 1.000   0 0.000   0 0.000   0 0.000   0 0.000   0 0.000   0 0.000   0 0.000  0 0 
    414 "4_BR_330    " 330.00     415 "4_BU_330    " 330.00  "2 "  1 "                                " :  1  0.002000  0.025000  0.390000    0.0    0.0    0.0    0.0 0.000    0.0 /
   4    1  0.000000  0.000000  1.000000   400101   391231   0 1  0    0.0    0.0    0.0    0.0   1 1.000   0 0.000   0 0.000   0 0.000   0 0.000   0 0.000   0 0.000   0 0.000  0 0 
    415 "4_BU_330    " 330.00     416 "4_DU_330    " 330.00  "1 "  1 "                                " :  1  0.003700  0.046000  0.730000    0.0    0.0    0.0    0.0 0.000    0.0 /
   4    1  0.000000  0.000000  1.000000   400101   391231   0 1  0    0.0    0.0    0.0    0.0   1 1.000   0 0.000   0 0.000   0 0.000   0 0.000   0 0.000   0 0.000   0 0.000  0 0 
    415 "4_BU_330    " 330.00     416 "4_DU_330    " 330.00  "2 "  1 "                                " :  1  0.003700  0.046000  0.730000    0.0    0.0    0.0    0.0 0.000    0.0 /
   4    1  0.000000  0.000000  1.000000   400101   391231   0 1  0    0.0    0.0    0.0    0.0   1 1.000   0 0.000   0 0.000   0 0.000   0 0.000   0 0.000   0 0.000   0 0.000  0 0 
    504 "5_D__275    " 275.00     507 "5_PSV275    " 275.00  "1 "  1 "                                " :  1  0.023000  0.150000  0.560000    0.0    0.0    0.0    0.0 0.000    0.0 /
   5    1  0.000000  0.000000  1.000000   400101   391231   0 1  0    0.0    0.0    0.0    0.0   1 1.000   0 0.000   0 0.000   0 0.000   0 0.000   0 0.000   0 0.000   0 0.000  0 0 
    504 "5_D__275    " 275.00     507 "5_PSV275    " 275.00  "2 "  1 "                                " :  1  0.023000  0.150000  0.560000    0.0    0.0    0.0    0.0 0.000    0.0 /
   5    1  0.000000  0.000000  1.000000   400101   391231   0 1  0    0.0    0.0    0.0    0.0   1 1.000   0 0.000   0 0.000   0 0.000   0 0.000   0 0.000   0 0.000   0 0.000  0 0 
    504 "5_D__275    " 275.00     508 "5_CG_275    " 275.00  "1 "  1 "                                " :  1  0.026000  0.019000  0.870000    0.0    0.0    0.0    0.0 0.000    0.0 /
   5    1  0.000000  0.000000  1.000000   400101   391231   0 1  0    0.0    0.0    0.0    0.0   1 1.000   0 0.000   0 0.000   0 0.000   0 0.000   0 0.000   0 0.000   0 0.000  0 0 
    504 "5_D__275    " 275.00     508 "5_CG_275    " 275.00  "2 "  1 "                                " :  1  0.026000  0.019000  0.870000    0.0    0.0    0.0    0.0 0.000    0.0 /
   5    1  0.000000  0.000000  1.000000   400101   391231   0 1  0    0.0    0.0    0.0    0.0   1 1.000   0 0.000   0 0.000   0 0.000   0 0.000   0 0.000   0 0.000   0 0.000  0 0 
    505 "5_TPS275    " 275.00     507 "5_PSV275    " 275.00  "1 "  1 "                                " :  1  0.001600  0.017000  0.030000    0.0    0.0    0.0    0.0 0.000    0.0 /
   5    1  0.000000  0.000000  1.000000   400101   391231   0 1  0    0.0    0.0    0.0    0.0   1 1.000   0 0.000   0 0.000   0 0.000   0 0.000   0 0.000   0 0.000   0 0.000  0 0 
    505 "5_TPS275    " 275.00     507 "5_PSV275    " 275.00  "2 "  1 "                                " :  1  0.001600  0.017000  0.030000    0.0    0.0    0.0    0.0 0.000    0.0 /
   5    1  0.000000  0.000000  1.000000   400101   391231   0 1  0    0.0    0.0    0.0    0.0   1 1.000   0 0.000   0 0.000   0 0.000   0 0.000   0 0.000   0 0.000   0 0.000  0 0 
    505 "5_TPS275    " 275.00     508 "5_CG_275    " 275.00  "1 "  1 "                                " :  1  0.002500  0.028000  0.170000    0.0    0.0    0.0    0.0 0.000    0.0 /
   5    1  0.000000  0.000000  1.000000   400101   391231   0 1  0    0.0    0.0    0.0    0.0   1 1.000   0 0.000   0 0.000   0 0.000   0 0.000   0 0.000   0 0.000   0 0.000  0 0 
    506 "5_PPS275    " 275.00     507 "5_PSV275    " 275.00  "1 "  1 "                                " :  1  0.001600  0.017000  0.030000    0.0    0.0    0.0    0.0 0.000    0.0 /
   5    1  0.000000  0.000000  1.000000   400101   391231   0 1  0    0.0    0.0    0.0    0.0   1 1.000   0 0.000   0 0.000   0 0.000   0 0.000   0 0.000   0 0.000   0 0.000  0 0 
    506 "5_PPS275    " 275.00     507 "5_PSV275    " 275.00  "2 "  1 "                                " :  1  0.001600  0.017000  0.030000    0.0    0.0    0.0    0.0 0.000    0.0 /
   5    1  0.000000  0.000000  1.000000   400101   391231   0 1  0    0.0    0.0    0.0    0.0   1 1.000   0 0.000   0 0.000   0 0.000   0 0.000   0 0.000   0 0.000   0 0.000  0 0 
    506 "5_PPS275    " 275.00     508 "5_CG_275    " 275.00  "1 "  1 "                                " :  1  0.003000  0.028000  0.140000    0.0    0.0    0.0    0.0 0.000    0.0 /
   5    1  0.000000  0.000000  1.000000   400101   391231   0 1  0    0.0    0.0    0.0    0.0   1 1.000   0 0.000   0 0.000   0 0.000   0 0.000   0 0.000   0 0.000   0 0.000  0 0 
    507 "5_PSV275    " 275.00     508 "5_CG_275    " 275.00  "1 "  1 "                                " :  1  0.002000  0.019000  0.090000    0.0    0.0    0.0    0.0 0.000    0.0 /
   5    1  0.000000  0.000000  1.000000   400101   391231   0 1  0    0.0    0.0    0.0    0.0   1 1.000   0 0.000   0 0.000   0 0.000   0 0.000   0 0.000   0 0.000   0 0.000  0 0 
    507 "5_PSV275    " 275.00     509 "5_SSV275    " 275.00  "1 "  1 "                                " :  1  0.090000  0.660000  0.300000    0.0    0.0    0.0    0.0 0.000    0.0 /
   5    1  0.000000  0.000000  1.000000   400101   391231   0 1  0    0.0    0.0    0.0    0.0   1 1.000   0 0.000   0 0.000   0 0.000   0 0.000   0 0.000   0 0.000   0 0.000  0 0 
    507 "5_PSV275    " 275.00     509 "5_SSV275    " 275.00  "2 "  1 "                                " :  1  0.090000  0.660000  0.300000    0.0    0.0    0.0    0.0 0.000    0.0 /
   5    1  0.000000  0.000000  1.000000   400101   391231   0 1  0    0.0    0.0    0.0    0.0   1 1.000   0 0.000   0 0.000   0 0.000   0 0.000   0 0.000   0 0.000   0 0.000  0 0 
...
transformer data  [  34]                                     ck   ------------long_id_------------     st ty --no---    reg_name          zt         int                              tert                   ar zone  tbase   ps_r    ps_x    pt_r    pt_x    ts_r    ts_x
    101 "1_HPSGEN    "  15.00     102 "1_HPS330    " 330.00  "1 " "                                " :  1  1       0 "            "   0.00  0       0 "            "   0.00       0 "            "   0.00    1    1 100.000000 0.000000E+000 1.800000E-002 0.000000E+000 0.000000E+000 0.000000E+000 0.000000E+000 /
 15.000000 330.000000  0.000000  0.000000 0.000000E+000 0.000000E+000    0.0    0.0    0.0    0.0 0.000  1.100000  0.900000  1.100000  0.900000 -0.006250  1.000000  1.000000  1.000000  1.000000   400101   391231   0 1     0.0    0.0    0.0    0.0 /
   1 1.000   0 0.000   0 0.000   0 0.000   0 0.000   0 0.000   0 0.000   0 0.000  0 /
   0.000000   0.000000  0.000000  0.000000     0.0    0.0    0.0     0.0    0.0    0.0 0.000 0.000  0  0  0 0.0000 0.0000 0 
    201 "2_BPSGEN    "  20.00     206 "2_BPS330    " 330.00  "1 " "                                " :  1  1       0 "            "   0.00  0       0 "            "   0.00       0 "            "   0.00    2    1 100.000000 0.000000E+000 8.000000E-003 0.000000E+000 0.000000E+000 0.000000E+000 0.000000E+000 /
 20.000000 330.000000  0.000000  0.000000 0.000000E+000 0.000000E+000    0.0    0.0    0.0    0.0 0.000  1.100000  0.900000  1.100000  0.900000 -0.006250  1.010100  1.000000  1.000000  1.000000   400101   391231   0 1     0.0    0.0    0.0    0.0 /
   1 1.000   0 0.000   0 0.000   0 0.000   0 0.000   0 0.000   0 0.000   0 0.000  0 /
   0.000000   0.000000  0.000000  0.000000     0.0    0.0    0.0     0.0    0.0    0.0 0.000 0.000  0  0  0 0.0000 0.0000 0 
    202 "2_EPSGEN    "  20.00     209 "2_EPS330    " 330.00  "1 " "                                " :  1  1       0 "            "   0.00  0       0 "            "   0.00       0 "            "   0.00    2    1 100.000000 0.000000E+000 9.600000E-003 0.000000E+000 0.000000E+000 0.000000E+000 0.000000E+000 /
 20.000000 330.000000  0.000000  0.000000 0.000000E+000 0.000000E+000    0.0    0.0    0.0    0.0 0.000  1.100000  0.900000  1.100000  0.900000 -0.006250  1.010100  1.000000  1.000000  1.000000   400101   391231   0 1     0.0    0.0    0.0    0.0 /
   1 1.000   0 0.000   0 0.000   0 0.000   0 0.000   0 0.000   0 0.000   0 0.000  0 /
   0.000000   0.000000  0.000000  0.000000     0.0    0.0    0.0     0.0    0.0    0.0 0.000 0.000  0  0  0 0.0000 0.0000 0 
    203 "2_VPSGEN    "  20.00     208 "2_VPS330    " 330.00  "1 " "                                " :  1  1       0 "            "   0.00  0       0 "            "   0.00       0 "            "   0.00    2    1 100.000000 0.000000E+000 1.020000E-002 0.000000E+000 0.000000E+000 0.000000E+000 0.000000E+000 /
 20.000000 330.000000  0.000000  0.000000 0.000000E+000 0.000000E+000    0.0    0.0    0.0    0.0 0.000  1.100000  0.900000  1.100000  0.900000 -0.006250  1.010100  1.000000  1.000000  1.000000   400101   391231   0 1     0.0    0.0    0.0    0.0 /
   1 1.000   0 0.000   0 0.000   0 0.000   0 0.000   0 0.000   0 0.000   0 0.000  0 /
   0.000000   0.000000  0.000000  0.000000     0.0    0.0    0.0     0.0    0.0    0.0 0.000 0.000  0  0  0 0.0000 0.0000 0 
    204 "2_MPSGEN    "  20.00     215 "2_MPS330    " 330.00  "1 " "                                " :  1  1       0 "            "   0.00  0       0 "            "   0.00       0 "            "   0.00    2    1 100.000000 0.000000E+000 8.000000E-003 0.000000E+000 0.000000E+000 0.000000E+000 0.000000E+000 /
 20.000000 330.000000  0.000000  0.000000 0.000000E+000 0.000000E+000    0.0    0.0    0.0    0.0 0.000  1.100000  0.900000  1.100000  0.900000 -0.006250  1.010100  1.000000  1.000000  1.000000   400101   391231   0 1     0.0    0.0    0.0    0.0 /
   1 1.000   0 0.000   0 0.000   0 0.000   0 0.000   0 0.000   0 0.000   0 0.000  0 /
   0.000000   0.000000  0.000000  0.000000     0.0    0.0    0.0     0.0    0.0    0.0 0.000 0.000  0  0  0 0.0000 0.0000 0 
    209 "2_EPS330    " 330.00     210 "2_EPS500    " 500.00  "1 " "                                " :  1  1       0 "            "   0.00  0       0 "            "   0.00       0 "            "   0.00    2    1 100.000000 0.000000E+000 2.720000E-002 0.000000E+000 0.000000E+000 0.000000E+000 0.000000E+000 /
 330.000000 500.000000  0.000000  0.000000 0.000000E+000 0.000000E+000    0.0    0.0    0.0    0.0 0.000  1.100000  0.900000  1.100000  0.900000 -0.006250  0.975600  1.000000  1.000000  1.000000   400101   391231   0 1     0.0    0.0    0.0    0.0 /
   1 1.000   0 0.000   0 0.000   0 0.000   0 0.000   0 0.000   0 0.000   0 0.000  0 /
   0.000000   0.000000  0.000000  0.000000     0.0    0.0    0.0     0.0    0.0    0.0 0.000 0.000  0  0  0 0.0000 0.0000 0 
    209 "2_EPS330    " 330.00     210 "2_EPS500    " 500.00  "2 " "                                " :  1  1       0 "            "   0.00  0       0 "            "   0.00       0 "            "   0.00    2    1 100.000000 0.000000E+000 2.720000E-002 0.000000E+000 0.000000E+000 0.000000E+000 0.000000E+000 /
 330.000000 500.000000  0.000000  0.000000 0.000000E+000 0.000000E+000    0.0    0.0    0.0    0.0 0.000  1.100000  0.900000  1.100000  0.900000 -0.006250  0.975600  1.000000  1.000000  1.000000   400101   391231   0 1     0.0    0.0    0.0    0.0 /
   1 1.000   0 0.000   0 0.000   0 0.000   0 0.000   0 0.000   0 0.000   0 0.000  0 /
   0.000000   0.000000  0.000000  0.000000     0.0    0.0    0.0     0.0    0.0    0.0 0.000 0.000  0  0  0 0.0000 0.0000 0 
    209 "2_EPS330    " 330.00     210 "2_EPS500    " 500.00  "3 " "                                " :  1  1       0 "            "   0.00  0       0 "            "   0.00       0 "            "   0.00    2    1 100.000000 0.000000E+000 2.720000E-002 0.000000E+000 0.000000E+000 0.000000E+000 0.000000E+000 /
 330.000000 500.000000  0.000000  0.000000 0.000000E+000 0.000000E+000    0.0    0.0    0.0    0.0 0.000  1.100000  0.900000  1.100000  0.900000 -0.006250  0.975600  1.000000  1.000000  1.000000   400101   391231   0 1     0.0    0.0    0.0    0.0 /
   1 1.000   0 0.000   0 0.000   0 0.000   0 0.000   0 0.000   0 0.000   0 0.000  0 /
   0.000000   0.000000  0.000000  0.000000     0.0    0.0    0.0     0.0    0.0    0.0 0.000 0.000  0  0  0 0.0000 0.0000 0 
    209 "2_EPS330    " 330.00     210 "2_EPS500    " 500.00  "4 " "                                " :  1  1       0 "            "   0.00  0       0 "            "   0.00       0 "            "   0.00    2    1 100.000000 0.000000E+000 2.720000E-002 0.000000E+000 0.000000E+000 0.000000E+000 0.000000E+000 /
 330.000000 500.000000  0.000000  0.000000 0.000000E+000 0.000000E+000    0.0    0.0    0.0    0.0 0.000  1.100000  0.900000  1.100000  0.900000 -0.006250  0.975600  1.000000  1.000000  1.000000   400101   391231   0 1     0.0    0.0    0.0    0.0 /
   1 1.000   0 0.000   0 0.000   0 0.000   0 0.000   0 0.000   0 0.000   0 0.000  0 /
   0.000000   0.000000  0.000000  0.000000     0.0    0.0    0.0     0.0    0.0    0.0 0.000 0.000  0  0  0 0.0000 0.0000 0 
    213 "2_K__500    " 500.00     214 "2_K__330    " 330.00  "1 " "                                " :  1  1       0 "            "   0.00  0       0 "            "   0.00       0 "            "   0.00    2    1 100.000000 0.000000E+000 2.720000E-002 0.000000E+000 0.000000E+000 0.000000E+000 0.000000E+000 /
 500.000000 330.000000  0.000000  0.000000 0.000000E+000 0.000000E+000    0.0    0.0    0.0    0.0 0.000  1.100000  0.900000  1.100000  0.900000 -0.006250  1.000000  1.000000  1.000000  1.000000   400101   391231   0 1     0.0    0.0    0.0    0.0 /
   1 1.000   0 0.000   0 0.000   0 0.000   0 0.000   0 0.000   0 0.000   0 0.000  0 /
   0.000000   0.000000  0.000000  0.000000     0.0    0.0    0.0     0.0    0.0    0.0 0.000 0.000  0  0  0 0.0000 0.0000 0 
    213 "2_K__500    " 500.00     214 "2_K__330    " 330.00  "2 " "                                " :  1  1       0 "            "   0.00  0       0 "            "   0.00       0 "            "   0.00    2    1 100.000000 0.000000E+000 2.720000E-002 0.000000E+000 0.000000E+000 0.000000E+000 0.000000E+000 /
 500.000000 330.000000  0.000000  0.000000 0.000000E+000 0.000000E+000    0.0    0.0    0.0    0.0 0.000  1.100000  0.900000  1.100000  0.900000 -0.006250  1.000000  1.000000  1.000000  1.000000   400101   391231   0 1     0.0    0.0    0.0    0.0 /
   1 1.000   0 0.000   0 0.000   0 0.000   0 0.000   0 0.000   0 0.000   0 0.000  0 /
   0.000000   0.000000  0.000000  0.000000     0.0    0.0    0.0     0.0    0.0    0.0 0.000 0.000  0  0  0 0.0000 0.0000 0 
    213 "2_K__500    " 500.00     214 "2_K__330    " 330.00  "3 " "                                " :  1  1       0 "            "   0.00  0       0 "            "   0.00       0 "            "   0.00    2    1 100.000000 0.000000E+000 2.720000E-002 0.000000E+000 0.000000E+000 0.000000E+000 0.000000E+000 /
 500.000000 330.000000  0.000000  0.000000 0.000000E+000 0.000000E+000    0.0    0.0    0.0    0.0 0.000  1.100000  0.900000  1.100000  0.900000 -0.006250  1.000000  1.000000  1.000000  1.000000   400101   391231   0 1     0.0    0.0    0.0    0.0 /
   1 1.000   0 0.000   0 0.000   0 0.000   0 0.000   0 0.000   0 0.000   0 0.000  0 /
   0.000000   0.000000  0.000000  0.000000     0.0    0.0    0.0     0.0    0.0    0.0 0.000 0.000  0  0  0 0.0000 0.0000 0 
    213 "2_K__500    " 500.00     214 "2_K__330    " 330.00  "4 " "                                " :  1  1       0 "            "   0.00  0       0 "            "   0.00       0 "            "   0.00    2    1 100.000000 0.000000E+000 2.720000E-002 0.000000E+000 0.000000E+000 0.000000E+000 0.000000E+000 /
 500.000000 330.000000  0.000000  0.000000 0.000000E+000 0.000000E+000    0.0    0.0    0.0    0.0 0.000  1.100000  0.900000  1.100000  0.900000 -0.006250  1.000000  1.000000  1.000000  1.000000   400101   391231   0 1     0.0    0.0    0.0    0.0 /
   1 1.000   0 0.000   0 0.000   0 0.000   0 0.000   0 0.000   0 0.000   0 0.000  0 /
   0.000000   0.000000  0.000000  0.000000     0.0    0.0    0.0     0.0    0.0    0.0 0.000 0.000  0  0  0 0.0000 0.0000 0 
    301 "3_LPSGEN    "  20.00     303 "3_LPS500    " 500.00  "1 " "                                " :  1  1       0 "            "   0.00  0       0 "            "   0.00       0 "            "   0.00    3    1 100.000000 0.000000E+000 4.000000E-003 0.000000E+000 0.000000E+000 0.000000E+000 0.000000E+000 /
 20.000000 500.000000  0.000000  0.000000 0.000000E+000 0.000000E+000    0.0    0.0    0.0    0.0 0.000  1.100000  0.900000  1.100000  0.900000 -0.006250  1.000000  1.000000  1.000000  1.000000   400101   391231   0 1     0.0    0.0    0.0    0.0 /
   1 1.000   0 0.000   0 0.000   0 0.000   0 0.000   0 0.000   0 0.000   0 0.000  0 /
   0.000000   0.000000  0.000000  0.000000     0.0    0.0    0.0     0.0    0.0    0.0 0.000 0.000  0  0  0 0.0000 0.0000 0 
    302 "3_YPSGEN    "  20.00     312 "3_YPS220    " 220.00  "1 " "                                " :  1  1       0 "            "   0.00  0       0 "            "   0.00       0 "            "   0.00    3    1 100.000000 0.000000E+000 1.690000E-002 0.000000E+000 0.000000E+000 0.000000E+000 0.000000E+000 /
 20.000000 220.000000  0.000000  0.000000 0.000000E+000 0.000000E+000    0.0    0.0    0.0    0.0 0.000  1.100000  0.900000  1.100000  0.900000 -0.006250  1.000000  1.000000  1.000000  1.000000   400101   391231   0 1     0.0    0.0    0.0    0.0 /
   1 1.000   0 0.000   0 0.000   0 0.000   0 0.000   0 0.000   0 0.000   0 0.000  0 /
   0.000000   0.000000  0.000000  0.000000     0.0    0.0    0.0     0.0    0.0    0.0 0.000 0.000  0  0  0 0.0000 0.0000 0 
    304 "3_R__500    " 500.00     313 "3_RSV220    " 220.00  "1 " "                                " :  1  1       0 "            "   0.00  0       0 "            "   0.00       0 "            "   0.00    3    1 100.000000 0.000000E+000 3.200000E-002 0.000000E+000 0.000000E+000 0.000000E+000 0.000000E+000 /
 500.000000 220.000000  0.000000  0.000000 0.000000E+000 0.000000E+000    0.0    0.0    0.0    0.0 0.000  1.100000  0.900000  1.100000  0.900000 -0.006250  0.961500  1.000000  1.000000  1.000000   400101   391231   0 1     0.0    0.0    0.0    0.0 /
   1 1.000   0 0.000   0 0.000   0 0.000   0 0.000   0 0.000   0 0.000   0 0.000  0 /
...